Version 4
SHEET 1 880 680
WIRE -32 -224 -80 -224
WIRE 128 -224 96 -224
WIRE 160 -224 128 -224
WIRE 320 -224 288 -224
WIRE -80 -208 -80 -224
WIRE -80 -208 -208 -208
WIRE 320 -192 320 -224
WIRE -128 -128 -208 -128
WIRE -32 -128 -128 -128
WIRE 160 -128 96 -128
WIRE 320 -128 288 -128
WIRE 320 -96 320 -128
WIRE -48 -48 -176 -48
WIRE 64 -48 16 -48
WIRE 96 -48 64 -48
WIRE 96 -16 96 -48
WIRE 128 -16 128 -224
WIRE 128 -16 96 -16
WIRE -80 16 -80 -208
WIRE -48 16 -80 16
WIRE 64 16 16 16
WIRE 192 16 64 16
WIRE -128 32 -128 -128
WIRE -128 32 -176 32
WIRE 272 96 240 96
WIRE -48 112 -176 112
WIRE 64 112 16 112
WIRE 96 112 96 -16
WIRE 96 112 64 112
WIRE -80 176 -80 16
WIRE -48 176 -80 176
WIRE 64 176 16 176
WIRE 192 176 64 176
WIRE -128 192 -128 32
WIRE -128 192 -176 192
WIRE 272 256 240 256
FLAG 192 112 0
FLAG 192 272 0
FLAG 272 96 G1
IOPIN 272 96 Out
FLAG 272 256 G2
IOPIN 272 256 Out
FLAG 320 -96 0
FLAG 320 -192 COM
SYMBOL nmos 240 16 M0
SYMATTR InstName M1
SYMBOL nmos 240 176 M0
SYMATTR InstName M2
SYMBOL Ozbolt\\relay -16 -16 M0
SYMATTR InstName X1
SYMBOL Ozbolt\\relay -16 144 M0
SYMATTR InstName X2
SYMBOL res -160 -64 M0
SYMATTR InstName Grelec1
SYMBOL res -160 16 M0
SYMATTR InstName Grelec2
SYMBOL res -160 96 M0
SYMATTR InstName Grelec3
SYMBOL schottky 80 16 R180
WINDOW 0 -7 -25 Left 2
WINDOW 3 24 0 Left 2
SYMATTR InstName SD1
SYMATTR Value ""
SYMBOL schottky 80 176 R180
WINDOW 0 -5 -27 Left 2
WINDOW 3 24 0 Left 2
SYMATTR InstName SD2
SYMATTR Value ""
SYMBOL Ozbolt\\ACDC 32 -176 R0
SYMATTR InstName X3
SYMBOL Ozbolt\\DCDC 224 -176 R0
SYMATTR InstName X4
SYMBOL voltage -208 -224 R0
WINDOW 0 -16 -37 Left 2
WINDOW 3 24 96 Invisible 2
WINDOW 123 -71 -7 Left 2
WINDOW 39 0 0 Left 2
SYMATTR InstName Vin
SYMATTR Value ""
SYMATTR Value2 AC 230V 50Hz
